<?xml version="1.0" encoding="UTF-8"?>

<!-- generated on 8-11-2018 11:07:50 by Netedit Version 0.32.0
<?xml version="1.0" encoding="UTF-8"?>

<configuration xmlns:xsi="http://www.w3.org/2001/XMLSchema-instance" xsi:noNamespaceSchemaLocation="http://sumo.dlr.de/xsd/netconvertConfiguration.xsd">

    <input>
        <sumo-net-file value="junction.net.xml"/>
    </input>

    <output>
        <output-file value="junction.net.xml"/>
    </output>

    <processing>
        <no-turnarounds value="true"/>
        <offset.disable-normalization value="true"/>
        <lefthand value="false"/>
        <junctions.corner-detail value="0"/>
        <rectangular-lane-cut value="false"/>
        <walkingareas value="false"/>
    </processing>

</configuration>
-->

<net version="0.27" xmlns:xsi="http://www.w3.org/2001/XMLSchema-instance" xsi:noNamespaceSchemaLocation="http://sumo.dlr.de/xsd/net_file.xsd">

    <location netOffset="50.00,50.00" convBoundary="0.00,0.00,400.00,400.00" origBoundary="-50.00,-50.00,50.00,50.00" projParameter="!"/>

    <edge id=":1_0" function="internal">
        <lane id=":1_0_0" index="0" speed="10.00" length="9.50" shape="198.35,204.75 198.35,195.25"/>
    </edge>
    <edge id=":1_1" function="internal">
        <lane id=":1_1_0" index="0" speed="10.00" length="9.50" shape="204.75,201.65 195.25,201.65"/>
    </edge>
    <edge id=":1_2" function="internal">
        <lane id=":1_2_0" index="0" speed="10.00" length="9.50" shape="201.65,195.25 201.65,204.75"/>
    </edge>
    <edge id=":1_3" function="internal">
        <lane id=":1_3_0" index="0" speed="10.00" length="9.50" shape="195.25,198.35 204.75,198.35"/>
    </edge>
    <edge id=":2_0" function="internal">
        <lane id=":2_0_0" index="0" speed="10.00" length="4.82" shape="400.00,198.35 401.24,199.17 401.65,200.00 401.24,200.82 400.00,201.65"/>
    </edge>
    <edge id=":3_0" function="internal">
        <lane id=":3_0_0" index="0" speed="10.00" length="4.82" shape="201.65,400.00 200.83,401.24 200.00,401.65 199.18,401.24 198.35,400.00"/>
    </edge>
    <edge id=":4_0" function="internal">
        <lane id=":4_0_0" index="0" speed="10.00" length="4.82" shape="0.00,201.65 -1.24,200.83 -1.65,200.00 -1.24,199.18 0.00,198.35"/>
    </edge>
    <edge id=":5_0" function="internal">
        <lane id=":5_0_0" index="0" speed="10.00" length="4.82" shape="198.35,0.00 199.17,-1.24 200.00,-1.65 200.82,-1.24 201.65,0.00"/>
    </edge>

    <edge id="1to2" from="1" to="2" priority="-1">
        <lane id="1to2_0" index="0" speed="10.00" length="195.25" shape="204.75,198.35 400.00,198.35"/>
    </edge>
    <edge id="1to3" from="1" to="3" priority="-1">
        <lane id="1to3_0" index="0" speed="10.00" length="195.25" shape="201.65,204.75 201.65,400.00"/>
    </edge>
    <edge id="1to4" from="1" to="4" priority="-1">
        <lane id="1to4_0" index="0" speed="10.00" length="195.25" shape="195.25,201.65 0.00,201.65"/>
    </edge>
    <edge id="1to5" from="1" to="5" priority="-1">
        <lane id="1to5_0" index="0" speed="10.00" length="195.25" shape="198.35,195.25 198.35,0.00"/>
    </edge>
    <edge id="2to1" from="2" to="1" priority="-1">
        <lane id="2to1_0" index="0" speed="10.00" length="195.25" shape="400.00,201.65 204.75,201.65"/>
    </edge>
    <edge id="3to1" from="3" to="1" priority="-1">
        <lane id="3to1_0" index="0" speed="10.00" length="195.25" shape="198.35,400.00 198.35,204.75"/>
    </edge>
    <edge id="4to1" from="4" to="1" priority="-1">
        <lane id="4to1_0" index="0" speed="10.00" length="195.25" shape="0.00,198.35 195.25,198.35"/>
    </edge>
    <edge id="5to1" from="5" to="1" priority="-1">
        <lane id="5to1_0" index="0" speed="10.00" length="195.25" shape="201.65,0.00 201.65,195.25"/>
    </edge>

    <junction id="1" type="unregulated" x="200.00" y="200.00" incLanes="3to1_0 2to1_0 5to1_0 4to1_0" intLanes=":1_0_0 :1_1_0 :1_2_0 :1_3_0" shape="196.75,204.75 203.25,204.75 204.75,203.25 204.75,196.75 203.25,195.25 196.75,195.25 195.25,196.75 195.25,203.25"/>
    <junction id="2" type="priority" x="400.00" y="200.00" incLanes="1to2_0" intLanes=":2_0_0" shape="400.00,200.05 400.00,196.75 400.00,199.95">
        <request index="0" response="0" foes="0" cont="0"/>
    </junction>
    <junction id="3" type="priority" x="200.00" y="400.00" incLanes="1to3_0" intLanes=":3_0_0" shape="199.95,400.00 203.25,400.00 200.05,400.00">
        <request index="0" response="0" foes="0" cont="0"/>
    </junction>
    <junction id="4" type="priority" x="0.00" y="200.00" incLanes="1to4_0" intLanes=":4_0_0" shape="0.00,199.95 0.00,203.25 0.00,200.05">
        <request index="0" response="0" foes="0" cont="0"/>
    </junction>
    <junction id="5" type="priority" x="200.00" y="0.00" incLanes="1to5_0" intLanes=":5_0_0" shape="200.05,0.00 196.75,0.00 199.95,0.00">
        <request index="0" response="0" foes="0" cont="0"/>
    </junction>

    <connection from="1to2" to="2to1" fromLane="0" toLane="0" via=":2_0_0" dir="t" state="M"/>
    <connection from="1to3" to="3to1" fromLane="0" toLane="0" via=":3_0_0" dir="t" state="M"/>
    <connection from="1to4" to="4to1" fromLane="0" toLane="0" via=":4_0_0" dir="t" state="M"/>
    <connection from="1to5" to="5to1" fromLane="0" toLane="0" via=":5_0_0" dir="t" state="M"/>
    <connection from="2to1" to="1to4" fromLane="0" toLane="0" keepClear="0" via=":1_1_0" dir="s" state="M"/>
    <connection from="3to1" to="1to5" fromLane="0" toLane="0" keepClear="0" via=":1_0_0" dir="s" state="M"/>
    <connection from="4to1" to="1to2" fromLane="0" toLane="0" keepClear="0" via=":1_3_0" dir="s" state="M"/>
    <connection from="5to1" to="1to3" fromLane="0" toLane="0" keepClear="0" via=":1_2_0" dir="s" state="M"/>

    <connection from=":1_0" to="1to5" fromLane="0" toLane="0" dir="s" state="M"/>
    <connection from=":1_1" to="1to4" fromLane="0" toLane="0" dir="s" state="M"/>
    <connection from=":1_2" to="1to3" fromLane="0" toLane="0" dir="s" state="M"/>
    <connection from=":1_3" to="1to2" fromLane="0" toLane="0" dir="s" state="M"/>
    <connection from=":2_0" to="2to1" fromLane="0" toLane="0" dir="t" state="M"/>
    <connection from=":3_0" to="3to1" fromLane="0" toLane="0" dir="t" state="M"/>
    <connection from=":4_0" to="4to1" fromLane="0" toLane="0" dir="t" state="M"/>
    <connection from=":5_0" to="5to1" fromLane="0" toLane="0" dir="t" state="M"/>

</net>
